
OS:Version,
  {c78b8935-f92b-4bc0-884f-a2468782f9ca}, !- Handle
  3.6.1;                                  !- Version Identifier

OS:Site,
  {c64cf976-a9f0-4685-9481-e0ea997926a7}, !- Handle
  Columbia Regional Airport,              !- Name
  38.82,                                  !- Latitude {deg}
  -92.22,                                 !- Longitude {deg}
  -6,                                     !- Time Zone {hr}
  272,                                    !- Elevation {m}
  ;                                       !- Terrain

OS:YearDescription,
  {beeac2be-5721-4dd5-9ca1-b9d69237f266}, !- Handle
  ,                                       !- Calendar Year
  Sunday;                                 !- Day of Week for Start Day

OS:ClimateZones,
  {5d1523e6-d87f-4f74-9975-434d60d27dfd}, !- Handle
  ASHRAE,                                 !- Climate Zone Institution Name 1
  ANSI/ASHRAE Standard 169,               !- Climate Zone Document Name 1
  2006,                                   !- Climate Zone Document Year 1
  4A,                                     !- Climate Zone Value 1
  CEC,                                    !- Climate Zone Institution Name 2
  California Climate Zone Descriptions,   !- Climate Zone Document Name 2
  1995,                                   !- Climate Zone Document Year 2
  ;                                       !- Climate Zone Value 2

OS:Building,
  {c103753e-48fe-44bc-b19d-17e06b4d314f}, !- Handle
  Building 1,                             !- Name
  ,                                       !- Building Sector Type
  -0,                                     !- North Axis {deg}
  ,                                       !- Nominal Floor to Floor Height {m}
  ,                                       !- Space Type Name
  ,                                       !- Default Construction Set Name
  ;                                       !- Default Schedule Set Name

OS:Facility,
  {2ff8b16c-e431-4634-a18a-ca1a19094a56}; !- Handle

OS:SimulationControl,
  {05bb01f7-7d11-4898-961e-8ce43900cb02}; !- Handle

OS:Sizing:Parameters,
  {18fad4f9-62a5-44fe-85bc-3f705ac26ba4}, !- Handle
  1.25,                                   !- Heating Sizing Factor
  1.15;                                   !- Cooling Sizing Factor

OS:Timestep,
  {5d4dc35b-0fab-4055-b495-f7979392fb57}, !- Handle
  6;                                      !- Number of Timesteps per Hour

OS:ShadowCalculation,
  {7c73dddf-0792-4371-b7bc-0bd1035b28be}, !- Handle
  PolygonClipping,                        !- Shading Calculation Method
  ,                                       !- Shading Calculation Update Frequency Method
  20,                                     !- Shading Calculation Update Frequency
  15000,                                  !- Maximum Figures in Shadow Overlap Calculations
  ,                                       !- Polygon Clipping Algorithm
  512,                                    !- Pixel Counting Resolution
  ,                                       !- Sky Diffuse Modeling Algorithm
  No,                                     !- Output External Shading Calculation Results
  No,                                     !- Disable Self-Shading Within Shading Zone Groups
  No;                                     !- Disable Self-Shading From Shading Zone Groups to Other Zones

OS:HeatBalanceAlgorithm,
  {5e369bf6-4e40-4cec-ae14-d64793d41c3b}, !- Handle
  ConductionTransferFunction,             !- Algorithm
  200;                                    !- Surface Temperature Upper Limit {C}

OS:RunPeriod,
  {630f609f-d59f-483a-9641-ac9432428e6a}, !- Handle
  Run Period 1,                           !- Name
  1,                                      !- Begin Month
  1,                                      !- Begin Day of Month
  12,                                     !- End Month
  31,                                     !- End Day of Month
  ,                                       !- Use Weather File Holidays and Special Days
  ,                                       !- Use Weather File Daylight Saving Period
  ,                                       !- Apply Weekend Holiday Rule
  ,                                       !- Use Weather File Rain Indicators
  ,                                       !- Use Weather File Snow Indicators
  ;                                       !- Number of Times Runperiod to be Repeated

OS:LifeCycleCost:Parameters,
  {0992fca4-2960-498a-b02c-be533dddd709}, !- Handle
  ,                                       !- Analysis Type
  ,                                       !- Discounting Convention
  ,                                       !- Inflation Approach
  ,                                       !- Real Discount Rate
  ,                                       !- Nominal Discount Rate
  ,                                       !- Inflation
  ,                                       !- Base Date Month
  ,                                       !- Base Date Year
  ,                                       !- Service Date Month
  ,                                       !- Service Date Year
  ;                                       !- Length of Study Period in Years

OS:ThermalZone,
  {db27cbbf-2f77-497d-8e7e-dee43a551a62}, !- Handle
  Thermal Zone 1,                         !- Name
  1,                                      !- Multiplier
  ,                                       !- Ceiling Height {m}
  ,                                       !- Volume {m3}
  ,                                       !- Floor Area {m2}
  ,                                       !- Zone Inside Convection Algorithm
  ,                                       !- Zone Outside Convection Algorithm
  ,                                       !- Zone Conditioning Equipment List Name
  {ec9191d5-b8cd-4feb-9722-429406c84112}, !- Zone Air Inlet Port List
  {50a2c180-67bb-4649-a51e-f29bc714f04d}, !- Zone Air Exhaust Port List
  {45f3a8ec-f55f-4b5a-81dc-c994cc76db34}, !- Zone Air Node Name
  {81df93ce-a875-41d4-a4fa-a1ab7efe8963}, !- Zone Return Air Port List
  ,                                       !- Primary Daylighting Control Name
  ,                                       !- Fraction of Zone Controlled by Primary Daylighting Control
  ,                                       !- Secondary Daylighting Control Name
  ,                                       !- Fraction of Zone Controlled by Secondary Daylighting Control
  ,                                       !- Illuminance Map Name
  {971e0bcb-b129-4703-aa34-40f7fca94f2e}, !- Group Rendering Name
  ,                                       !- Thermostat Name
  No;                                     !- Use Ideal Air Loads

OS:Node,
  {64db5408-9651-431c-93e6-2970df01ccc2}, !- Handle
  Node 1,                                 !- Name
  {45f3a8ec-f55f-4b5a-81dc-c994cc76db34}, !- Inlet Port
  ;                                       !- Outlet Port

OS:Connection,
  {45f3a8ec-f55f-4b5a-81dc-c994cc76db34}, !- Handle
  {db27cbbf-2f77-497d-8e7e-dee43a551a62}, !- Source Object
  11,                                     !- Outlet Port
  {64db5408-9651-431c-93e6-2970df01ccc2}, !- Target Object
  2;                                      !- Inlet Port

OS:PortList,
  {ec9191d5-b8cd-4feb-9722-429406c84112}, !- Handle
  {db27cbbf-2f77-497d-8e7e-dee43a551a62}, !- HVAC Component
  {135ba7c3-48fe-4ffa-baca-647542e3b158}; !- Port 1

OS:PortList,
  {50a2c180-67bb-4649-a51e-f29bc714f04d}, !- Handle
  {db27cbbf-2f77-497d-8e7e-dee43a551a62}; !- HVAC Component

OS:PortList,
  {81df93ce-a875-41d4-a4fa-a1ab7efe8963}, !- Handle
  {db27cbbf-2f77-497d-8e7e-dee43a551a62}, !- HVAC Component
  {15d022fa-59f0-4d37-b4c2-4919b14f6ef5}; !- Port 1

OS:Sizing:Zone,
  {484f0781-5da9-430f-b20c-3617c51192fc}, !- Handle
  {db27cbbf-2f77-497d-8e7e-dee43a551a62}, !- Zone or ZoneList Name
  SupplyAirTemperature,                   !- Zone Cooling Design Supply Air Temperature Input Method
  14,                                     !- Zone Cooling Design Supply Air Temperature {C}
  11.11,                                  !- Zone Cooling Design Supply Air Temperature Difference {deltaC}
  SupplyAirTemperature,                   !- Zone Heating Design Supply Air Temperature Input Method
  40,                                     !- Zone Heating Design Supply Air Temperature {C}
  11.11,                                  !- Zone Heating Design Supply Air Temperature Difference {deltaC}
  0.0085,                                 !- Zone Cooling Design Supply Air Humidity Ratio {kg-H2O/kg-air}
  0.008,                                  !- Zone Heating Design Supply Air Humidity Ratio {kg-H2O/kg-air}
  ,                                       !- Zone Heating Sizing Factor
  ,                                       !- Zone Cooling Sizing Factor
  DesignDay,                              !- Cooling Design Air Flow Method
  ,                                       !- Cooling Design Air Flow Rate {m3/s}
  ,                                       !- Cooling Minimum Air Flow per Zone Floor Area {m3/s-m2}
  ,                                       !- Cooling Minimum Air Flow {m3/s}
  ,                                       !- Cooling Minimum Air Flow Fraction
  DesignDay,                              !- Heating Design Air Flow Method
  ,                                       !- Heating Design Air Flow Rate {m3/s}
  ,                                       !- Heating Maximum Air Flow per Zone Floor Area {m3/s-m2}
  ,                                       !- Heating Maximum Air Flow {m3/s}
  ,                                       !- Heating Maximum Air Flow Fraction
  No,                                     !- Account for Dedicated Outdoor Air System
  NeutralSupplyAir,                       !- Dedicated Outdoor Air System Control Strategy
  autosize,                               !- Dedicated Outdoor Air Low Setpoint Temperature for Design {C}
  autosize,                               !- Dedicated Outdoor Air High Setpoint Temperature for Design {C}
  Sensible Load Only No Latent Load,      !- Zone Load Sizing Method
  HumidityRatioDifference,                !- Zone Latent Cooling Design Supply Air Humidity Ratio Input Method
  ,                                       !- Zone Dehumidification Design Supply Air Humidity Ratio {kgWater/kgDryAir}
  0.005,                                  !- Zone Cooling Design Supply Air Humidity Ratio Difference {kgWater/kgDryAir}
  HumidityRatioDifference,                !- Zone Latent Heating Design Supply Air Humidity Ratio Input Method
  ,                                       !- Zone Humidification Design Supply Air Humidity Ratio {kgWater/kgDryAir}
  0.005;                                  !- Zone Humidification Design Supply Air Humidity Ratio Difference {kgWater/kgDryAir}

OS:ZoneHVAC:EquipmentList,
  {f5007c42-7cac-495d-a5c4-77dc7516939f}, !- Handle
  Zone HVAC Equipment List 1,             !- Name
  {db27cbbf-2f77-497d-8e7e-dee43a551a62}, !- Thermal Zone
  ,                                       !- Load Distribution Scheme
  {fffd639e-274a-461f-8c6f-44f004d158df}, !- Zone Equipment 1
  1,                                      !- Zone Equipment Cooling Sequence 1
  1,                                      !- Zone Equipment Heating or No-Load Sequence 1
  ,                                       !- Zone Equipment Sequential Cooling Fraction Schedule Name 1
  ;                                       !- Zone Equipment Sequential Heating Fraction Schedule Name 1

OS:Rendering:Color,
  {971e0bcb-b129-4703-aa34-40f7fca94f2e}, !- Handle
  Rendering Color 1,                      !- Name
  136,                                    !- Rendering Red Value
  204,                                    !- Rendering Green Value
  238,                                    !- Rendering Blue Value
  255;                                    !- Rendering Alpha Value

OS:Rendering:Color,
  {9faf0688-b6e2-47c7-9949-68b66d3b9e3e}, !- Handle
  Rendering Color 2,                      !- Name
  17,                                     !- Rendering Red Value
  119,                                    !- Rendering Green Value
  51;                                     !- Rendering Blue Value

OS:Space,
  {81fbfb55-b2b4-4405-bf2b-9c931260e94e}, !- Handle
  Space 1 - 1,                            !- Name
  {4632f0b5-718f-4653-8b76-10e7ffe2ccff}, !- Space Type Name
  {7fe6ed49-0179-45d3-8665-57783201a736}, !- Default Construction Set Name
  {007c35f4-3b8c-4a93-bb7d-5a3ed1a8513a}, !- Default Schedule Set Name
  ,                                       !- Direction of Relative North {deg}
  ,                                       !- X Origin {m}
  ,                                       !- Y Origin {m}
  ,                                       !- Z Origin {m}
  {a91f7e0f-db25-4715-ad32-5f4d0961aa10}, !- Building Story Name
  {db27cbbf-2f77-497d-8e7e-dee43a551a62}, !- Thermal Zone Name
  ,                                       !- Part of Total Floor Area
  ,                                       !- Design Specification Outdoor Air Object Name
  ;                                       !- Building Unit Name

OS:Surface,
  {9e69414f-ac22-45f7-943a-8ba087f4f564}, !- Handle
  Face 0,                                 !- Name
  Floor,                                  !- Surface Type
  ,                                       !- Construction Name
  {81fbfb55-b2b4-4405-bf2b-9c931260e94e}, !- Space Name
  Ground,                                 !- Outside Boundary Condition
  ,                                       !- Outside Boundary Condition Object
  NoSun,                                  !- Sun Exposure
  NoWind,                                 !- Wind Exposure
  ,                                       !- View Factor to Ground
  ,                                       !- Number of Vertices
  -155.448, -9.144, 0,                    !- X,Y,Z Vertex 1 {m}
  -155.448, -27.432, 0,                   !- X,Y,Z Vertex 2 {m}
  -169.164, -27.432, 0,                   !- X,Y,Z Vertex 3 {m}
  -169.164, -9.144, 0;                    !- X,Y,Z Vertex 4 {m}

OS:Surface,
  {25ff775e-0edb-4868-a874-0453c8d9cc5b}, !- Handle
  Face 1,                                 !- Name
  RoofCeiling,                            !- Surface Type
  ,                                       !- Construction Name
  {81fbfb55-b2b4-4405-bf2b-9c931260e94e}, !- Space Name
  Outdoors,                               !- Outside Boundary Condition
  ,                                       !- Outside Boundary Condition Object
  SunExposed,                             !- Sun Exposure
  WindExposed,                            !- Wind Exposure
  ,                                       !- View Factor to Ground
  ,                                       !- Number of Vertices
  -169.164, -9.144, 3.048,                !- X,Y,Z Vertex 1 {m}
  -169.164, -27.432, 3.048,               !- X,Y,Z Vertex 2 {m}
  -155.448, -27.432, 3.048,               !- X,Y,Z Vertex 3 {m}
  -155.448, -9.144, 3.048;                !- X,Y,Z Vertex 4 {m}

OS:Surface,
  {74bf73a0-a469-445f-a636-05ebaa730264}, !- Handle
  Face 13,                                !- Name
  Wall,                                   !- Surface Type
  ,                                       !- Construction Name
  {81fbfb55-b2b4-4405-bf2b-9c931260e94e}, !- Space Name
  Outdoors,                               !- Outside Boundary Condition
  ,                                       !- Outside Boundary Condition Object
  SunExposed,                             !- Sun Exposure
  WindExposed,                            !- Wind Exposure
  ,                                       !- View Factor to Ground
  ,                                       !- Number of Vertices
  -169.164, -9.144, 3.048,                !- X,Y,Z Vertex 1 {m}
  -155.448, -9.144, 3.048,                !- X,Y,Z Vertex 2 {m}
  -155.448, -9.144, 0,                    !- X,Y,Z Vertex 3 {m}
  -169.164, -9.144, 0;                    !- X,Y,Z Vertex 4 {m}

OS:SubSurface,
  {4917e862-40e8-477c-a3bc-e804bef9ea52}, !- Handle
  Face 14,                                !- Name
  OperableWindow,                         !- Sub Surface Type
  ,                                       !- Construction Name
  {74bf73a0-a469-445f-a636-05ebaa730264}, !- Surface Name
  ,                                       !- Outside Boundary Condition Object
  ,                                       !- View Factor to Ground
  ,                                       !- Frame and Divider Name
  ,                                       !- Multiplier
  ,                                       !- Number of Vertices
  -159.1056, -9.144, 2.1336,              !- X,Y,Z Vertex 1 {m}
  -159.1056, -9.144, 0.9144,              !- X,Y,Z Vertex 2 {m}
  -160.9344, -9.144, 0.9144,              !- X,Y,Z Vertex 3 {m}
  -160.9344, -9.144, 2.1336;              !- X,Y,Z Vertex 4 {m}

OS:Surface,
  {3acdc887-2cd6-4cf5-a687-6cc971b4f705}, !- Handle
  Face 2,                                 !- Name
  Wall,                                   !- Surface Type
  ,                                       !- Construction Name
  {81fbfb55-b2b4-4405-bf2b-9c931260e94e}, !- Space Name
  Outdoors,                               !- Outside Boundary Condition
  ,                                       !- Outside Boundary Condition Object
  SunExposed,                             !- Sun Exposure
  WindExposed,                            !- Wind Exposure
  ,                                       !- View Factor to Ground
  ,                                       !- Number of Vertices
  -155.448, -9.144, 3.048,                !- X,Y,Z Vertex 1 {m}
  -155.448, -27.432, 3.048,               !- X,Y,Z Vertex 2 {m}
  -155.448, -27.432, 0,                   !- X,Y,Z Vertex 3 {m}
  -155.448, -9.144, 0;                    !- X,Y,Z Vertex 4 {m}

OS:SubSurface,
  {0a351ab4-f953-49d6-9b5f-a8741a680813}, !- Handle
  Face 3,                                 !- Name
  OperableWindow,                         !- Sub Surface Type
  ,                                       !- Construction Name
  {3acdc887-2cd6-4cf5-a687-6cc971b4f705}, !- Surface Name
  ,                                       !- Outside Boundary Condition Object
  ,                                       !- View Factor to Ground
  ,                                       !- Frame and Divider Name
  ,                                       !- Multiplier
  ,                                       !- Number of Vertices
  -155.448, -23.7744, 2.1336,             !- X,Y,Z Vertex 1 {m}
  -155.448, -23.7744, 0.9144,             !- X,Y,Z Vertex 2 {m}
  -155.448, -21.9456, 0.9144,             !- X,Y,Z Vertex 3 {m}
  -155.448, -21.9456, 2.1336;             !- X,Y,Z Vertex 4 {m}

OS:SubSurface,
  {ffa7456c-d45f-4057-95cd-b5013c821a6d}, !- Handle
  Face 4,                                 !- Name
  OperableWindow,                         !- Sub Surface Type
  ,                                       !- Construction Name
  {3acdc887-2cd6-4cf5-a687-6cc971b4f705}, !- Surface Name
  ,                                       !- Outside Boundary Condition Object
  ,                                       !- View Factor to Ground
  ,                                       !- Frame and Divider Name
  ,                                       !- Multiplier
  ,                                       !- Number of Vertices
  -155.448, -19.2024, 2.1336,             !- X,Y,Z Vertex 1 {m}
  -155.448, -19.2024, 0.9144,             !- X,Y,Z Vertex 2 {m}
  -155.448, -17.3736, 0.9144,             !- X,Y,Z Vertex 3 {m}
  -155.448, -17.3736, 2.1336;             !- X,Y,Z Vertex 4 {m}

OS:SubSurface,
  {dcff265d-0a8d-42aa-b3da-67768fccdf68}, !- Handle
  Face 5,                                 !- Name
  Door,                                   !- Sub Surface Type
  ,                                       !- Construction Name
  {3acdc887-2cd6-4cf5-a687-6cc971b4f705}, !- Surface Name
  ,                                       !- Outside Boundary Condition Object
  ,                                       !- View Factor to Ground
  ,                                       !- Frame and Divider Name
  ,                                       !- Multiplier
  ,                                       !- Number of Vertices
  -155.448, -14.1732, 2.033016,           !- X,Y,Z Vertex 1 {m}
  -155.448, -14.1732, 0,                  !- X,Y,Z Vertex 2 {m}
  -155.448, -13.2588, 0,                  !- X,Y,Z Vertex 3 {m}
  -155.448, -13.2588, 2.033016;           !- X,Y,Z Vertex 4 {m}

OS:Surface,
  {61e5e5a8-fc74-458b-b4ea-4b3a1c8313b1}, !- Handle
  Face 6,                                 !- Name
  Wall,                                   !- Surface Type
  ,                                       !- Construction Name
  {81fbfb55-b2b4-4405-bf2b-9c931260e94e}, !- Space Name
  Outdoors,                               !- Outside Boundary Condition
  ,                                       !- Outside Boundary Condition Object
  SunExposed,                             !- Sun Exposure
  WindExposed,                            !- Wind Exposure
  ,                                       !- View Factor to Ground
  ,                                       !- Number of Vertices
  -155.448, -27.432, 3.048,               !- X,Y,Z Vertex 1 {m}
  -169.164, -27.432, 3.048,               !- X,Y,Z Vertex 2 {m}
  -169.164, -27.432, 0,                   !- X,Y,Z Vertex 3 {m}
  -155.448, -27.432, 0;                   !- X,Y,Z Vertex 4 {m}

OS:SubSurface,
  {3775d232-93e6-4f9d-b2b4-5bcae29fc05b}, !- Handle
  Face 8,                                 !- Name
  OperableWindow,                         !- Sub Surface Type
  ,                                       !- Construction Name
  {61e5e5a8-fc74-458b-b4ea-4b3a1c8313b1}, !- Surface Name
  ,                                       !- Outside Boundary Condition Object
  ,                                       !- View Factor to Ground
  ,                                       !- Frame and Divider Name
  ,                                       !- Multiplier
  ,                                       !- Number of Vertices
  -160.9344, -27.432, 2.1336,             !- X,Y,Z Vertex 1 {m}
  -160.9344, -27.432, 0.9144,             !- X,Y,Z Vertex 2 {m}
  -159.1056, -27.432, 0.9144,             !- X,Y,Z Vertex 3 {m}
  -159.1056, -27.432, 2.1336;             !- X,Y,Z Vertex 4 {m}

OS:SubSurface,
  {7ffbbec8-0545-4590-b763-f2411d648ae7}, !- Handle
  Face 7,                                 !- Name
  OperableWindow,                         !- Sub Surface Type
  ,                                       !- Construction Name
  {61e5e5a8-fc74-458b-b4ea-4b3a1c8313b1}, !- Surface Name
  ,                                       !- Outside Boundary Condition Object
  ,                                       !- View Factor to Ground
  ,                                       !- Frame and Divider Name
  ,                                       !- Multiplier
  ,                                       !- Number of Vertices
  -165.5064, -27.432, 2.1336,             !- X,Y,Z Vertex 1 {m}
  -165.5064, -27.432, 0.9144,             !- X,Y,Z Vertex 2 {m}
  -163.6776, -27.432, 0.9144,             !- X,Y,Z Vertex 3 {m}
  -163.6776, -27.432, 2.1336;             !- X,Y,Z Vertex 4 {m}

OS:Surface,
  {447783f8-26f8-4af2-8d15-be340e23c875}, !- Handle
  Face 9,                                 !- Name
  Wall,                                   !- Surface Type
  ,                                       !- Construction Name
  {81fbfb55-b2b4-4405-bf2b-9c931260e94e}, !- Space Name
  Outdoors,                               !- Outside Boundary Condition
  ,                                       !- Outside Boundary Condition Object
  SunExposed,                             !- Sun Exposure
  WindExposed,                            !- Wind Exposure
  ,                                       !- View Factor to Ground
  ,                                       !- Number of Vertices
  -169.164, -27.432, 3.048,               !- X,Y,Z Vertex 1 {m}
  -169.164, -9.144, 3.048,                !- X,Y,Z Vertex 2 {m}
  -169.164, -9.144, 0,                    !- X,Y,Z Vertex 3 {m}
  -169.164, -27.432, 0;                   !- X,Y,Z Vertex 4 {m}

OS:SubSurface,
  {42d403d9-d56e-48cb-bd1c-9bff844d6f49}, !- Handle
  Face 10,                                !- Name
  OperableWindow,                         !- Sub Surface Type
  ,                                       !- Construction Name
  {447783f8-26f8-4af2-8d15-be340e23c875}, !- Surface Name
  ,                                       !- Outside Boundary Condition Object
  ,                                       !- View Factor to Ground
  ,                                       !- Frame and Divider Name
  ,                                       !- Multiplier
  ,                                       !- Number of Vertices
  -169.164, -12.8016, 2.1336,             !- X,Y,Z Vertex 1 {m}
  -169.164, -12.8016, 0.9144,             !- X,Y,Z Vertex 2 {m}
  -169.164, -14.6304, 0.9144,             !- X,Y,Z Vertex 3 {m}
  -169.164, -14.6304, 2.1336;             !- X,Y,Z Vertex 4 {m}

OS:SubSurface,
  {aebdcd56-e504-4fa0-b3ee-6dd377d0ca73}, !- Handle
  Face 12,                                !- Name
  Door,                                   !- Sub Surface Type
  ,                                       !- Construction Name
  {447783f8-26f8-4af2-8d15-be340e23c875}, !- Surface Name
  ,                                       !- Outside Boundary Condition Object
  ,                                       !- View Factor to Ground
  ,                                       !- Frame and Divider Name
  ,                                       !- Multiplier
  ,                                       !- Number of Vertices
  -169.164, -17.8308, 2.033016,           !- X,Y,Z Vertex 1 {m}
  -169.164, -17.8308, 0,                  !- X,Y,Z Vertex 2 {m}
  -169.164, -18.7452, 0,                  !- X,Y,Z Vertex 3 {m}
  -169.164, -18.7452, 2.033016;           !- X,Y,Z Vertex 4 {m}

OS:SubSurface,
  {de68c127-f8c4-42eb-ac37-7ed91fb99b9d}, !- Handle
  Face 11,                                !- Name
  OperableWindow,                         !- Sub Surface Type
  ,                                       !- Construction Name
  {447783f8-26f8-4af2-8d15-be340e23c875}, !- Surface Name
  ,                                       !- Outside Boundary Condition Object
  ,                                       !- View Factor to Ground
  ,                                       !- Frame and Divider Name
  ,                                       !- Multiplier
  ,                                       !- Number of Vertices
  -169.164, -21.9456, 2.1336,             !- X,Y,Z Vertex 1 {m}
  -169.164, -21.9456, 0.9144,             !- X,Y,Z Vertex 2 {m}
  -169.164, -23.7744, 0.9144,             !- X,Y,Z Vertex 3 {m}
  -169.164, -23.7744, 2.1336;             !- X,Y,Z Vertex 4 {m}

OS:BuildingStory,
  {a91f7e0f-db25-4715-ad32-5f4d0961aa10}, !- Handle
  Story 1,                                !- Name
  0,                                      !- Nominal Z Coordinate {m}
  2.4384,                                 !- Nominal Floor to Floor Height {m}
  ,                                       !- Default Construction Set Name
  ,                                       !- Default Schedule Set Name
  {764ed0e2-a4ea-47a9-8b71-c528ff1b044d}, !- Group Rendering Name
  2.4384;                                 !- Nominal Floor to Ceiling Height {m}

OS:Rendering:Color,
  {764ed0e2-a4ea-47a9-8b71-c528ff1b044d}, !- Handle
  Rendering Color 3,                      !- Name
  17,                                     !- Rendering Red Value
  119,                                    !- Rendering Green Value
  51;                                     !- Rendering Blue Value

OS:SizingPeriod:DesignDay,
  {736694d8-ad34-4cf8-ad7a-6ca66e413763}, !- Handle
  Columbia Regional Airport Ann Clg .4% Condns Enth=>MDB, !- Name
  31.9,                                   !- Maximum Dry-Bulb Temperature {C}
  11,                                     !- Daily Dry-Bulb Temperature Range {deltaC}
  98100,                                  !- Barometric Pressure {Pa}
  4.4,                                    !- Wind Speed {m/s}
  220,                                    !- Wind Direction {deg}
  ,                                       !- Sky Clearness
  No,                                     !- Rain Indicator
  No,                                     !- Snow Indicator
  21,                                     !- Day of Month
  7,                                      !- Month
  SummerDesignDay,                        !- Day Type
  No,                                     !- Daylight Saving Time Indicator
  Enthalpy,                               !- Humidity Condition Type
  ,                                       !- Humidity Condition Day Schedule Name
  23,                                     !- Wetbulb or DewPoint at Maximum Dry-Bulb {C}
  ,                                       !- Humidity Ratio at Maximum Dry-Bulb {kgWater/kgDryAir}
  82700,                                  !- Enthalpy at Maximum Dry-Bulb {J/kg}
  DefaultMultipliers,                     !- Dry-Bulb Temperature Range Modifier Type
  ,                                       !- Dry-Bulb Temperature Range Modifier Day Schedule Name
  ASHRAETau,                              !- Solar Model Indicator
  ,                                       !- Beam Solar Day Schedule Name
  ,                                       !- Diffuse Solar Day Schedule Name
  0.448,                                  !- ASHRAE Clear Sky Optical Depth for Beam Irradiance {dimensionless}
  2.098;                                  !- ASHRAE Clear Sky Optical Depth for Diffuse Irradiance {dimensionless}

OS:SizingPeriod:DesignDay,
  {b65052ad-0da7-4153-a457-2757eaaea3ef}, !- Handle
  Columbia Regional Airport Ann Clg .4% Condns DP=>MDB, !- Name
  29.6,                                   !- Maximum Dry-Bulb Temperature {C}
  11,                                     !- Daily Dry-Bulb Temperature Range {deltaC}